Info: SIMULATION PARAMETERS:
Info: TIMESTEP               2
Info: NUMBER OF STEPS        0
Info: STEPS PER CYCLE        10
Info: FIRST LDB TIMESTEP     50
Info: LAST LDB TIMESTEP     -1
Info: HOM BACKGROUND SCALING 1
Info: MIN ATOMS PER PATCH    40
Info: EMPTY PATCH LOAD       40 ATOMS
Info: INITIAL TEMPERATURE    310
Info: CENTER OF MASS MOVING INITIALLY? NO
Info: DIELECTRIC             1
Info: EXCLUDE                SCALED ONE-FOUR
Info: 1-4 ELECTROSTATICS SCALED BY 1
Info: MODIFIED 1-4 VDW PARAMETERS WILL BE USED
Info: DCD FILENAME           eq.dcd
Info: DCD FREQUENCY          250
Info: DCD FIRST STEP         250
Info: XST FILENAME           eq.xst
Info: XST FREQUENCY          250
Info: NO VELOCITY DCD OUTPUT
Info: NO FORCE DCD OUTPUT
Info: OUTPUT FILENAME        eq
Info: BINARY OUTPUT FILES WILL BE USED
Info: RESTART FILENAME       eq.restart
Info: RESTART FREQUENCY      500
Info: BINARY RESTART FILES WILL BE USED
Info: SWITCHING ACTIVE
Info: SWITCHING ON           13
Info: SWITCHING OFF          14
Info: PAIRLIST DISTANCE      16
Info: PAIRLIST SHRINK RATE   0.01
Info: PAIRLIST GROW RATE     0.01
Info: PAIRLIST TRIGGER       0.3
Info: PAIRLISTS PER CYCLE    2
Info: PAIRLISTS ENABLED
Info: MARGIN                 0
Info: HYDROGEN GROUP CUTOFF  2.5
Info: PATCH DIMENSION        18.5
Info: ENERGY OUTPUT STEPS    100
Info: ENERGY EVALUATION STEPS    100
Info: OUTPUT ENERGY PRECISION 4
Info: OUPUT ENERGY PRECISION 4
Info: CROSSTERM ENERGY INCLUDED IN DIHEDRAL
Info: TIMING OUTPUT STEPS    1000
Info: PRESSURE OUTPUT STEPS  100
Info: GBIS GENERALIZED BORN IMPLICIT SOLVENT ACTIVE
Info: GBIS SOLVENT DIELECTRIC: 78.5
Info: GBIS PROTEIN DIELECTRIC: 1
Info: GBIS COULOMB RADIUS OFFSET: 0.09 Ang
Info: GBIS ION CONCENTRATION: 0.3 M
Info: GBIS DEBYE SCREENING LENGTH: 5.66311 Ang
Info: GBIS DELTA: 1
Info: GBIS BETA: 0.8
Info: GBIS GAMMA: 4.85
Info: GBIS BORN RADIUS CUTOFF: 12 Ang
Info: GBIS MAX BORN RADIUS: 30 Ang
Info: LANGEVIN DYNAMICS ACTIVE
Info: LANGEVIN TEMPERATURE   310
Info: LANGEVIN USING BBK INTEGRATOR
Info: LANGEVIN DAMPING COEFFICIENT IS 1 INVERSE PS
Info: LANGEVIN DYNAMICS NOT APPLIED TO HYDROGENS
Info: FULL ELECTROSTATIC EVALUATION FREQUENCY      2
Info: USING VERLET I (r-RESPA) MTS SCHEME.
Info: C1 SPLITTING OF LONG RANGE ELECTROSTATICS
Info: PLACING ATOMS IN PATCHES BY HYDROGEN GROUPS
Info: RIGID BONDS TO HYDROGEN : ALL
Info:         ERROR TOLERANCE : 1e-08
Info:          MAX ITERATIONS : 100
Info: RIGID WATER USING SETTLE ALGORITHM
Info: RANDOM NUMBER SEED     1701083618
Info: USE HYDROGEN BONDS?    NO
Info: COORDINATE PDB         system.pdb
Info: STRUCTURE FILE         system.psf
Info: PARAMETER file: CHARMM format!
Info: PARAMETERS             par_all27_prot_lipid.inp
Info: USING ARITHMETIC MEAN TO COMBINE L-J SIGMA PARAMETERS
Info: SUMMARY OF PARAMETERS:
Info: 180 BONDS
Info: 447 ANGLES
Info: 566 DIHEDRAL
Info: 46 IMPROPER
Info: 6 CROSSTERM
Info: 119 VDW
Info: 0 VDW_PAIRS
Info: 0 NBTHOLE_PAIRS
Info: STRUCTURE SUMMARY:
Info: 1962 ATOMS
Info: 1979 BONDS
Info: 3584 ANGLES
Info: 5249 DIHEDRALS
Info: 321 IMPROPERS
Info: 121 CROSSTERMS
Info: 0 EXCLUSIONS
Info: 979 RIGID BONDS
Info: 4907 DEGREES OF FREEDOM
Info: 983 HYDROGEN GROUPS
Info: 4 ATOMS IN LARGEST HYDROGEN GROUP
Info: 983 MIGRATION GROUPS
Info: 4 ATOMS IN LARGEST MIGRATION GROUP
Info: TOTAL MASS = 14073.2 amu
Info: TOTAL CHARGE = -4 e
Info: ADDED 10744 IMPLICIT EXCLUSIONS
Info: NONBONDED TABLE R-SQUARED SPACING: 0.0625
Info: NONBONDED TABLE SIZE: 769 POINTS
Info: ORIGINAL ATOMS MINMAX IS -13.751 -2.382 -11.697  22.653 39.747 31.69
Info: ADJUSTED ATOMS MINMAX IS -9.674 6.05525 -2.87425  16.266 33.7227 26.4982
Info: REMOVING COM VELOCITY 0.0396504 0.0273739 0.110209
TCL: Minimizing for 100 steps
ETITLE: TS BOND ANGLE DIHED IMPRP ELECT VDW BOUNDARY MISC KINETIC TOTAL TEMP POTENTIAL TOTAL3 TEMPAVG
ENERGY: 0 15679.4474 1856.6891 449.6636 1362.0444 -3809.4336 99999999999.9999 0.0000 0.0000 0.0000 99999999999.9999 0.0000 99999999999.9999 99999999999.9999 0.0000
ENERGY: 20 6694.8192 2068.5781 452.2267 1231.9779 -3582.9100 2762.8229 0.0000 0.0000 0.0000 9627.5149 0.0000 9627.5149 9627.5149 0.0000
ENERGY: 40 160.2795 936.9513 439.7038 50.9366 -3578.6226 -31.5004 0.0000 0.0000 0.0000 -2022.2519 0.0000 -2022.2519 -2022.2519 0.0000
ENERGY: 60 106.3425 600.3608 426.9828 29.6361 -3599.3161 -237.0843 0.0000 0.0000 0.0000 -2673.0783 0.0000 -2673.0783 -2673.0783 0.0000
ENERGY: 80 86.0899 447.1227 413.5959 19.6823 -3630.4900 -358.4683 0.0000 0.0000 0.0000 -3022.4675 0.0000 -3022.4675 -3022.4675 0.0000
ENERGY: 100 93.5265 405.8050 405.7829 15.4548 -3675.5847 -461.7638 0.0000 0.0000 0.0000 -3216.7791 0.0000 -3216.7791 -3216.7791 0.0000
TCL: Running for 2500 steps
ETITLE: TS BOND ANGLE DIHED IMPRP ELECT VDW BOUNDARY MISC KINETIC TOTAL TEMP POTENTIAL TOTAL3 TEMPAVG
ENERGY: 100 93.5265 405.8050 405.7829 15.4548 -3675.5847 -461.7638 0.0000 0.0000 1510.2918 -1706.4873 309.7670 -3216.7791 -1708.3188 309.7670
ENERGY: 600 341.6435 919.2836 493.0098 61.3243 -3835.5112 -444.5495 0.0000 0.0000 1165.4794 -1299.3202 239.0446 -2464.7996 -1288.4891 238.6986
ENERGY: 1100 367.3971 1029.6170 481.1257 50.8215 -3855.3103 -453.5717 0.0000 0.0000 1286.5487 -1093.3720 263.8764 -2379.9207 -1078.7034 263.8738
ENERGY: 1600 396.9574 1028.9304 467.0597 64.8393 -3854.4431 -429.3454 0.0000 0.0000 1354.2837 -971.7182 277.7691 -2326.0019 -957.2928 277.9610
ENERGY: 2100 404.6661 1031.8520 475.1268 59.6605 -3835.4634 -446.9374 0.0000 0.0000 1394.3075 -916.7879 285.9782 -2311.0954 -898.9558 285.1885
ENERGY: 2600 416.2531 1087.4078 497.5407 62.0177 -3865.2724 -448.3571 0.0000 0.0000 1457.1722 -793.2380 298.8720 -2250.4102 -776.3709 295.4640
