Info: SIMULATION PARAMETERS:
Info: TIMESTEP               2
Info: NUMBER OF STEPS        0
Info: STEPS PER CYCLE        10
Info: PERIODIC CELL BASIS 1  90.4 0 0
Info: PERIODIC CELL BASIS 2  0 72.3 0
Info: PERIODIC CELL BASIS 3  0 0 89.8
Info: PERIODIC CELL CENTER   -5.00615 1.11024 36.3928
Info: FIRST LDB TIMESTEP     50
Info: LAST LDB TIMESTEP     -1
Info: HOM BACKGROUND SCALING 1
Info: PME BACKGROUND SCALING 1
Info: MIN ATOMS PER PATCH    40
Info: INITIAL TEMPERATURE    310
Info: CENTER OF MASS MOVING INITIALLY? NO
Info: DIELECTRIC             1
Info: EXCLUDE                SCALED ONE-FOUR
Info: 1-4 ELECTROSTATICS SCALED BY 1
Info: MODIFIED 1-4 VDW PARAMETERS WILL BE USED
Info: DCD FILENAME           eq.dcd
Info: DCD FREQUENCY          500
Info: DCD FIRST STEP         500
Info: DCD FILE WILL CONTAIN UNIT CELL DATA
Info: XST FILENAME           eq.xst
Info: XST FREQUENCY          500
Info: NO VELOCITY DCD OUTPUT
Info: NO FORCE DCD OUTPUT
Info: OUTPUT FILENAME        eq
Info: BINARY OUTPUT FILES WILL BE USED
Info: RESTART FILENAME       eq.restart
Info: RESTART FREQUENCY      500
Info: BINARY RESTART FILES WILL BE USED
Info: SWITCHING ACTIVE
Info: SWITCHING ON           10
Info: SWITCHING OFF          12
Info: PAIRLIST DISTANCE      14
Info: PAIRLIST SHRINK RATE   0.01
Info: PAIRLIST GROW RATE     0.01
Info: PAIRLIST TRIGGER       0.3
Info: PAIRLISTS PER CYCLE    2
Info: PAIRLISTS ENABLED
Info: MARGIN                 0.495
Info: HYDROGEN GROUP CUTOFF  2.5
Info: PATCH DIMENSION        16.995
Info: ENERGY OUTPUT STEPS    100
Info: CROSSTERM ENERGY INCLUDED IN DIHEDRAL
Info: TIMING OUTPUT STEPS    1000
Info: PRESSURE OUTPUT STEPS  100
Info: LANGEVIN DYNAMICS ACTIVE
Info: LANGEVIN TEMPERATURE   310
Info: LANGEVIN USING BBK INTEGRATOR
Info: LANGEVIN DAMPING COEFFICIENT IS 1 INVERSE PS
Info: LANGEVIN DYNAMICS NOT APPLIED TO HYDROGENS
Info: LANGEVIN PISTON PRESSURE CONTROL ACTIVE
Info:        TARGET PRESSURE IS 1.01325 BAR
Info:     OSCILLATION PERIOD IS 100 FS
Info:             DECAY TIME IS 50 FS
Info:     PISTON TEMPERATURE IS 310 K
Info:       PRESSURE CONTROL IS GROUP-BASED
Info:    INITIAL STRAIN RATE IS 0 0 0
Info:       CELL FLUCTUATION IS ISOTROPIC
Info: PARTICLE MESH EWALD (PME) ACTIVE
Info: PME TOLERANCE               1e-06
Info: PME EWALD COEFFICIENT       0.257952
Info: PME INTERPOLATION ORDER     4
Info: PME GRID DIMENSIONS         96 80 96
Info: PME MAXIMUM GRID SPACING    1
Info: FULL ELECTROSTATIC EVALUATION FREQUENCY      2
Info: USING VERLET I (r-RESPA) MTS SCHEME.
Info: C1 SPLITTING OF LONG RANGE ELECTROSTATICS
Info: PLACING ATOMS IN PATCHES BY HYDROGEN GROUPS
Info: RIGID BONDS TO HYDROGEN : ALL
Info:         ERROR TOLERANCE : 1e-08
Info:          MAX ITERATIONS : 100
Info: RIGID WATER USING SETTLE ALGORITHM
Info: RANDOM NUMBER SEED     1700346297
Info: USE HYDROGEN BONDS?    NO
Info: COORDINATE PDB         av4w.pdb
Info: STRUCTURE FILE         av4w.psf
Info: PARAMETER file: CHARMM format!
Info: PARAMETERS             par_all27_prot_lipid.inp
Info: USING ARITHMETIC MEAN TO COMBINE L-J SIGMA PARAMETERS
Info: SUMMARY OF PARAMETERS:
Info: 180 BONDS
Info: 447 ANGLES
Info: 566 DIHEDRAL
Info: 46 IMPROPER
Info: 6 CROSSTERM
Info: 119 VDW
Info: 0 VDW_PAIRS
Info: 0 NBTHOLE_PAIRS
Info: STRUCTURE SUMMARY:
Info: 53597 ATOMS
Info: 39041 BONDS
Info: 32122 ANGLES
Info: 25657 DIHEDRALS
Info: 1612 IMPROPERS
Info: 618 CROSSTERMS
Info: 0 EXCLUSIONS
Info: 48730 RIGID BONDS
Info: 112061 DEGREES OF FREEDOM
Info: 19546 HYDROGEN GROUPS
Info: 4 ATOMS IN LARGEST HYDROGEN GROUP
Info: 19546 MIGRATION GROUPS
Info: 4 ATOMS IN LARGEST MIGRATION GROUP
Info: TOTAL MASS = 333228 amu
Info: TOTAL CHARGE = -28 e
Info: MASS DENSITY = 0.942796 g/cm^3
Info: ATOM DENSITY = 0.0913182 atoms/A^3
Info: ADDED 96322 IMPLICIT EXCLUSIONS
Info: NONBONDED TABLE R-SQUARED SPACING: 0.0625
Info: NONBONDED TABLE SIZE: 769 POINTS
Info: REMOVING COM VELOCITY 0.0193199 -0.0216352 -0.015915
TCL: Minimizing for 100 steps
ETITLE: TS BOND ANGLE DIHED IMPRP ELECT VDW BOUNDARY MISC KINETIC TOTAL TEMP POTENTIAL TOTAL3 TEMPAVG PRESSURE GPRESSURE VOLUME PRESSAVG GPRESSAVG
ENERGY: 0 297426.5546 29145.8651 2360.0039 13008.0399 -156187.0737 99999999999.9999 0.0000 0.0000 0.0000 99999999999.9999 0.0000 99999999999.9999 99999999999.9999 0.0000 99999999999.9999 99999999999.9999 586925.6160 99999999999.9999 99999999999.9999
ENERGY: 20 89601.9207 26806.1721 2309.6649 9859.0697 -153300.7372 56571.5480 0.0000 0.0000 0.0000 31847.6382 0.0000 31847.6382 31847.6382 0.0000 23391.6118 818.7700 586925.6160 23391.6118 818.7700
ENERGY: 40 15696.8408 12743.5799 2242.3820 889.0338 -154300.3653 20324.3932 0.0000 0.0000 0.0000 -102404.1356 0.0000 -102404.1356 -102404.1356 0.0000 16054.5999 3326.3350 586925.6160 16054.5999 3326.3350
ENERGY: 60 2233.4658 7061.5501 2223.0262 263.8525 -157718.8268 12469.0351 0.0000 0.0000 0.0000 -133467.8970 0.0000 -133467.8970 -133467.8970 0.0000 14402.8908 401.4018 586925.6160 14402.8908 401.4018
ENERGY: 80 897.3893 4700.4963 2179.9388 171.1296 -162618.8791 9945.4995 0.0000 0.0000 0.0000 -144724.4258 0.0000 -144724.4258 -144724.4258 0.0000 13266.9732 -1310.0683 586925.6160 13266.9732 -1310.0683
ENERGY: 100 734.9601 4015.9305 2161.3433 132.3779 -165367.0232 8858.2987 0.0000 0.0000 0.0000 -149464.1127 0.0000 -149464.1127 -149464.1127 0.0000 12618.7790 4566.4031 586925.6160 12618.7790 4566.4031
TCL: Running for 5000 steps
ETITLE: TS BOND ANGLE DIHED IMPRP ELECT VDW BOUNDARY MISC KINETIC TOTAL TEMP POTENTIAL TOTAL3 TEMPAVG PRESSURE GPRESSURE VOLUME PRESSAVG GPRESSAVG
ENERGY: 100 734.9601 4015.9305 2161.3433 132.3779 -165367.0232 8858.2987 0.0000 0.0000 34649.2480 -114814.8647 311.1929 -149464.1127 -114949.3217 311.1929 -849.3823 -808.7512 586925.6160 -849.3823 -808.7512
ENERGY: 1000 1899.2786 5410.0717 2940.1743 349.4028 -176938.8602 11020.4765 0.0000 0.0000 36094.1104 -119225.3459 324.1696 -155319.4563 -119088.4657 324.5554 -144.2828 -117.4978 541560.6850 -4.3935 -4.5376
ENERGY: 1900 1980.1174 5454.8859 2893.3997 336.1458 -179706.4863 11419.4220 0.0000 0.0000 35583.1285 -122039.3870 319.5803 -157622.5155 -121887.0409 318.8198 -159.8764 -132.4096 535903.1401 -0.1909 -0.0783
ENERGY: 2800 2003.5771 5555.2601 2856.9527 327.1810 -180924.5169 11667.1693 0.0000 0.0000 34992.8819 -123521.4949 314.2792 -158514.3768 -123372.8961 314.1005 111.6540 138.4804 532261.5918 3.4735 3.4563
ENERGY: 3700 1998.1222 5498.8018 2898.8985 350.0925 -181630.7234 11579.5510 0.0000 0.0000 34892.8790 -124412.3783 313.3810 -159305.2574 -124261.1893 313.0149 18.8597 42.1716 528445.5968 18.3234 18.2313
ENERGY: 4600 2014.1720 5669.3508 2841.6172 336.6089 -181482.7759 11370.6361 0.0000 0.0000 34620.4042 -124629.9866 310.9339 -159250.3909 -124488.3908 312.5254 -338.5027 -311.4293 529244.5876 -4.4363 -4.2581
