Info: SIMULATION PARAMETERS:
Info: TIMESTEP               2
Info: NUMBER OF STEPS        0
Info: STEPS PER CYCLE        10
Info: FIRST LDB TIMESTEP     50
Info: LAST LDB TIMESTEP     -1
Info: HOM BACKGROUND SCALING 1
Info: MIN ATOMS PER PATCH    40
Info: EMPTY PATCH LOAD       40 ATOMS
Info: INITIAL TEMPERATURE    400
Info: CENTER OF MASS MOVING INITIALLY? NO
Info: DIELECTRIC             1
Info: EXCLUDE                SCALED ONE-FOUR
Info: 1-4 ELECTROSTATICS SCALED BY 1
Info: MODIFIED 1-4 VDW PARAMETERS WILL BE USED
Info: DCD FILENAME           eq.dcd
Info: DCD FREQUENCY          250
Info: DCD FIRST STEP         250
Info: XST FILENAME           eq.xst
Info: XST FREQUENCY          250
Info: NO VELOCITY DCD OUTPUT
Info: NO FORCE DCD OUTPUT
Info: OUTPUT FILENAME        eq
Info: BINARY OUTPUT FILES WILL BE USED
Info: RESTART FILENAME       eq.restart
Info: RESTART FREQUENCY      500
Info: BINARY RESTART FILES WILL BE USED
Info: SWITCHING ACTIVE
Info: SWITCHING ON           13
Info: SWITCHING OFF          14
Info: PAIRLIST DISTANCE      16
Info: PAIRLIST SHRINK RATE   0.01
Info: PAIRLIST GROW RATE     0.01
Info: PAIRLIST TRIGGER       0.3
Info: PAIRLISTS PER CYCLE    2
Info: PAIRLISTS ENABLED
Info: MARGIN                 0
Info: HYDROGEN GROUP CUTOFF  2.5
Info: PATCH DIMENSION        18.5
Info: ENERGY OUTPUT STEPS    100
Info: ENERGY EVALUATION STEPS    100
Info: OUTPUT ENERGY PRECISION 4
Info: OUPUT ENERGY PRECISION 4
Info: CROSSTERM ENERGY INCLUDED IN DIHEDRAL
Info: TIMING OUTPUT STEPS    1000
Info: PRESSURE OUTPUT STEPS  100
Info: GBIS GENERALIZED BORN IMPLICIT SOLVENT ACTIVE
Info: GBIS SOLVENT DIELECTRIC: 78.5
Info: GBIS PROTEIN DIELECTRIC: 1
Info: GBIS COULOMB RADIUS OFFSET: 0.09 Ang
Info: GBIS ION CONCENTRATION: 0.3 M
Info: GBIS DEBYE SCREENING LENGTH: 6.43286 Ang
Info: GBIS DELTA: 1
Info: GBIS BETA: 0.8
Info: GBIS GAMMA: 4.85
Info: GBIS BORN RADIUS CUTOFF: 12 Ang
Info: GBIS MAX BORN RADIUS: 30 Ang
Info: LANGEVIN DYNAMICS ACTIVE
Info: LANGEVIN TEMPERATURE   400
Info: LANGEVIN USING BBK INTEGRATOR
Info: LANGEVIN DAMPING COEFFICIENT IS 1 INVERSE PS
Info: LANGEVIN DYNAMICS NOT APPLIED TO HYDROGENS
Info: FULL ELECTROSTATIC EVALUATION FREQUENCY      2
Info: USING VERLET I (r-RESPA) MTS SCHEME.
Info: C1 SPLITTING OF LONG RANGE ELECTROSTATICS
Info: PLACING ATOMS IN PATCHES BY HYDROGEN GROUPS
Info: RIGID BONDS TO HYDROGEN : ALL
Info:         ERROR TOLERANCE : 1e-08
Info:          MAX ITERATIONS : 100
Info: RIGID WATER USING SETTLE ALGORITHM
Info: RANDOM NUMBER SEED     1701178399
Info: USE HYDROGEN BONDS?    NO
Info: COORDINATE PDB         system.pdb
Info: STRUCTURE FILE         system.psf
Info: PARAMETER file: CHARMM format!
Info: PARAMETERS             par_all27_prot_lipid.inp
Info: USING ARITHMETIC MEAN TO COMBINE L-J SIGMA PARAMETERS
Info: SUMMARY OF PARAMETERS:
Info: 180 BONDS
Info: 447 ANGLES
Info: 566 DIHEDRAL
Info: 46 IMPROPER
Info: 6 CROSSTERM
Info: 119 VDW
Info: 0 VDW_PAIRS
Info: 0 NBTHOLE_PAIRS
Info: STRUCTURE SUMMARY:
Info: 1963 ATOMS
Info: 1982 BONDS
Info: 3589 ANGLES
Info: 5262 DIHEDRALS
Info: 321 IMPROPERS
Info: 121 CROSSTERMS
Info: 0 EXCLUSIONS
Info: 975 RIGID BONDS
Info: 4914 DEGREES OF FREEDOM
Info: 988 HYDROGEN GROUPS
Info: 4 ATOMS IN LARGEST HYDROGEN GROUP
Info: 988 MIGRATION GROUPS
Info: 4 ATOMS IN LARGEST MIGRATION GROUP
Info: TOTAL MASS = 14129.2 amu
Info: TOTAL CHARGE = -6 e
Info: ADDED 10757 IMPLICIT EXCLUSIONS
Info: NONBONDED TABLE R-SQUARED SPACING: 0.0625
Info: NONBONDED TABLE SIZE: 769 POINTS
Info: ORIGINAL ATOMS MINMAX IS -13.751 -2.382 -11.697  22.653 39.747 31.69
Info: ADJUSTED ATOMS MINMAX IS -9.79212 6.05525 -3.1195  16.2791 33.7227 26.5255
Info: REMOVING COM VELOCITY -0.0163362 0.109575 0.0406066
TCL: Minimizing for 100 steps
ETITLE: TS BOND ANGLE DIHED IMPRP ELECT VDW BOUNDARY MISC KINETIC TOTAL TEMP POTENTIAL TOTAL3 TEMPAVG
ENERGY: 0 15679.1230 1856.2656 444.3505 1362.0787 -3668.0988 99999999999.9999 0.0000 0.0000 0.0000 99999999999.9999 0.0000 99999999999.9999 99999999999.9999 0.0000
ENERGY: 20 6694.2147 2068.2081 446.9306 1232.0126 -3442.3073 2662.9235 0.0000 0.0000 0.0000 9661.9821 0.0000 9661.9821 9661.9821 0.0000
ENERGY: 40 162.1652 937.0629 434.6997 50.2784 -3433.2514 -58.0513 0.0000 0.0000 0.0000 -1907.0965 0.0000 -1907.0965 -1907.0965 0.0000
ENERGY: 60 93.7145 628.4206 423.3047 31.4138 -3449.6763 -243.6086 0.0000 0.0000 0.0000 -2516.4313 0.0000 -2516.4313 -2516.4313 0.0000
ENERGY: 80 156.5600 467.9074 410.6274 18.7895 -3480.7579 -374.7915 0.0000 0.0000 0.0000 -2801.6651 0.0000 -2801.6651 -2801.6651 0.0000
ENERGY: 100 96.3846 405.4028 403.3204 17.4614 -3506.8914 -440.2821 0.0000 0.0000 0.0000 -3024.6043 0.0000 -3024.6043 -3024.6043 0.0000
TCL: Running for 5000 steps
ETITLE: TS BOND ANGLE DIHED IMPRP ELECT VDW BOUNDARY MISC KINETIC TOTAL TEMP POTENTIAL TOTAL3 TEMPAVG
ENERGY: 100 96.3846 405.4028 403.3204 17.4614 -3506.8914 -440.2821 0.0000 0.0000 1997.2241 -1027.3802 409.0553 -3024.6043 -1030.2309 409.0553
ENERGY: 1100 430.2270 1237.8236 513.6267 74.9972 -3679.4363 -374.8415 0.0000 0.0000 1706.4255 -91.1779 349.4963 -1797.6034 -69.6412 343.9509
ENERGY: 2100 471.2005 1307.8745 540.2122 77.4633 -3658.1964 -390.9801 0.0000 0.0000 1881.6569 229.2310 385.3858 -1652.4259 253.2192 379.4675
ENERGY: 3100 536.6529 1308.5569 565.8747 83.8046 -3686.6260 -384.9200 0.0000 0.0000 1866.6383 289.9814 382.3098 -1576.6569 313.9208 383.7005
ENERGY: 4100 503.0172 1329.3209 552.3016 76.1515 -3684.3015 -340.8076 0.0000 0.0000 1872.4894 308.1714 383.5081 -1564.3179 331.0789 385.4290
ENERGY: 5100 460.3640 1337.1085 556.4971 84.5253 -3677.7471 -352.0833 0.0000 0.0000 1963.1980 371.8625 402.0864 -1591.3355 394.7761 388.7585
